<routes>
            <vType accel="1.0" decel="4.5" id="standard_car" length="5.0" minGap="2.5" maxSpeed="25" sigma="0.5" />
            <vType  accel="1.0" decel="4.5" id="BUS" minGap="2.5" maxSpeed="25" sigma="0.5" vClass="bus" color="0,0,1" />
            <vType  accel="1.0" decel="4.5" id="truck" minGap="2.5" maxSpeed="25" sigma="0.5" vClass="truck" color="0,1,0" />
            <vType  accel="1.0" decel="4.5" id="evehicle" minGap="2.5" maxSpeed="25" sigma="0.5" vClass="evehicle" color="1,0,0" />
            <vType  accel="1.0" decel="4.5" id="motorcycle" minGap="2.5" maxSpeed="25" sigma="0.5" vClass="motorcycle" color="1,0,1" />


            <route id="W_N" edges="W2TL TL2N"/>
            <route id="W_E" edges="W2TL TL2E"/>
            <route id="W_S" edges="W2TL TL2S"/>
            <route id="N_W" edges="N2TL TL2W"/>
            <route id="N_E" edges="N2TL TL2E"/>
            <route id="N_S" edges="N2TL TL2S"/>
            <route id="E_W" edges="E2TL TL2W"/>
            <route id="E_N" edges="E2TL TL2N"/>
            <route id="E_S" edges="E2TL TL2S"/>
            <route id="S_W" edges="S2TL TL2W"/>
            <route id="S_N" edges="S2TL TL2N"/>
            <route id="S_E" edges="S2TL TL2E"/>
    <vehicle id="W_S_0" type="truck" route="W_S" depart="0.0" departLane="random" departSpeed="10" />
    <vehicle id="W_E_1" type="truck" route="W_E" depart="7.0" departLane="random" departSpeed="10" />
    <vehicle id="N_S_2" type="truck" route="N_S" depart="8.0" departLane="random" departSpeed="10" />
    <vehicle id="W_N_3" type="standard_car" route="W_N" depart="8.0" departLane="random" departSpeed="10" />
    <vehicle id="W_S4" type="evehicle" route="W_S" depart="8.0" departLane="random" departSpeed="10" />
    <vehicle id="S_N5" type="motorcycle" route="S_N" depart="12.0" departLane="random" departSpeed="10" />
    <vehicle id="N_S_6" type="standard_car" route="N_S" depart="12.0" departLane="random" departSpeed="10" />
    <vehicle id="S_N_7" type="BUS" route="S_N" depart="12.0" departLane="random" departSpeed="10" />
    <vehicle id="E_W8" type="evehicle" route="E_W" depart="13.0" departLane="random" departSpeed="10" />
    <vehicle id="W_N_9" type="standard_car" route="W_N" depart="13.0" departLane="random" departSpeed="10" />
    <vehicle id="S_N_10" type="BUS" route="S_N" depart="16.0" departLane="random" departSpeed="10" />
    <vehicle id="S_N_11" type="BUS" route="S_N" depart="17.0" departLane="random" departSpeed="10" />
    <vehicle id="S_N12" type="evehicle" route="S_N" depart="17.0" departLane="random" departSpeed="10" />
    <vehicle id="W_E13" type="evehicle" route="W_E" depart="18.0" departLane="random" departSpeed="10" />
    <vehicle id="N_S14" type="evehicle" route="N_S" depart="18.0" departLane="random" departSpeed="10" />
    <vehicle id="N_S_15" type="standard_car" route="N_S" depart="19.0" departLane="random" departSpeed="10" />
    <vehicle id="E_W_16" type="standard_car" route="E_W" depart="20.0" departLane="random" departSpeed="10" />
    <vehicle id="S_N_17" type="standard_car" route="S_N" depart="20.0" departLane="random" departSpeed="10" />
    <vehicle id="E_N_18" type="standard_car" route="E_N" depart="20.0" departLane="random" departSpeed="10" />
    <vehicle id="N_S_19" type="BUS" route="N_S" depart="21.0" departLane="random" departSpeed="10" />
    <vehicle id="N_W_20" type="BUS" route="N_W" depart="21.0" departLane="random" departSpeed="10" />
    <vehicle id="S_N21" type="evehicle" route="S_N" depart="21.0" departLane="random" departSpeed="10" />
    <vehicle id="N_S22" type="motorcycle" route="N_S" depart="22.0" departLane="random" departSpeed="10" />
    <vehicle id="N_S_23" type="truck" route="N_S" depart="22.0" departLane="random" departSpeed="10" />
    <vehicle id="E_N24" type="evehicle" route="E_N" depart="22.0" departLane="random" departSpeed="10" />
    <vehicle id="S_N_25" type="truck" route="S_N" depart="23.0" departLane="random" departSpeed="10" />
    <vehicle id="N_S26" type="evehicle" route="N_S" depart="23.0" departLane="random" departSpeed="10" />
    <vehicle id="S_N_27" type="standard_car" route="S_N" depart="24.0" departLane="random" departSpeed="10" />
    <vehicle id="S_W_28" type="standard_car" route="S_W" depart="25.0" departLane="random" departSpeed="10" />
    <vehicle id="S_N_29" type="BUS" route="S_N" depart="25.0" departLane="random" departSpeed="10" />
    <vehicle id="N_S30" type="motorcycle" route="N_S" depart="26.0" departLane="random" departSpeed="10" />
    <vehicle id="S_N31" type="motorcycle" route="S_N" depart="26.0" departLane="random" departSpeed="10" />
    <vehicle id="S_N_32" type="standard_car" route="S_N" depart="26.0" departLane="random" departSpeed="10" />
    <vehicle id="S_E_33" type="BUS" route="S_E" depart="28.0" departLane="random" departSpeed="10" />
    <vehicle id="W_E_34" type="BUS" route="W_E" depart="28.0" departLane="random" departSpeed="10" />
    <vehicle id="S_W_35" type="standard_car" route="S_W" depart="28.0" departLane="random" departSpeed="10" />
    <vehicle id="E_W36" type="evehicle" route="E_W" depart="28.0" departLane="random" departSpeed="10" />
    <vehicle id="E_W_37" type="BUS" route="E_W" depart="29.0" departLane="random" departSpeed="10" />
    <vehicle id="N_E_38" type="standard_car" route="N_E" depart="29.0" departLane="random" departSpeed="10" />
    <vehicle id="W_E_39" type="standard_car" route="W_E" depart="29.0" departLane="random" departSpeed="10" />
    <vehicle id="W_S_40" type="BUS" route="W_S" depart="30.0" departLane="random" departSpeed="10" />
    <vehicle id="S_N_41" type="truck" route="S_N" depart="30.0" departLane="random" departSpeed="10" />
    <vehicle id="S_N42" type="motorcycle" route="S_N" depart="30.0" departLane="random" departSpeed="10" />
    <vehicle id="N_S_43" type="standard_car" route="N_S" depart="31.0" departLane="random" departSpeed="10" />
    <vehicle id="E_N_44" type="standard_car" route="E_N" depart="31.0" departLane="random" departSpeed="10" />
    <vehicle id="N_S_45" type="BUS" route="N_S" depart="31.0" departLane="random" departSpeed="10" />
    <vehicle id="E_N_46" type="standard_car" route="E_N" depart="32.0" departLane="random" departSpeed="10" />
    <vehicle id="S_N_47" type="truck" route="S_N" depart="32.0" departLane="random" departSpeed="10" />
    <vehicle id="W_S48" type="evehicle" route="W_S" depart="32.0" departLane="random" departSpeed="10" />
    <vehicle id="S_E49" type="evehicle" route="S_E" depart="32.0" departLane="random" departSpeed="10" />
    <vehicle id="W_E_50" type="BUS" route="W_E" depart="32.0" departLane="random" departSpeed="10" />
    <vehicle id="E_W_51" type="BUS" route="E_W" depart="32.0" departLane="random" departSpeed="10" />
    <vehicle id="S_N_52" type="truck" route="S_N" depart="33.0" departLane="random" departSpeed="10" />
    <vehicle id="S_N53" type="evehicle" route="S_N" depart="33.0" departLane="random" departSpeed="10" />
    <vehicle id="S_N_54" type="standard_car" route="S_N" depart="33.0" departLane="random" departSpeed="10" />
    <vehicle id="E_W_55" type="standard_car" route="E_W" depart="33.0" departLane="random" departSpeed="10" />
    <vehicle id="E_W56" type="evehicle" route="E_W" depart="33.0" departLane="random" departSpeed="10" />
    <vehicle id="E_W_57" type="standard_car" route="E_W" depart="33.0" departLane="random" departSpeed="10" />
    <vehicle id="E_W_58" type="standard_car" route="E_W" depart="33.0" departLane="random" departSpeed="10" />
    <vehicle id="W_E_59" type="standard_car" route="W_E" depart="34.0" departLane="random" departSpeed="10" />
    <vehicle id="W_E_60" type="standard_car" route="W_E" depart="34.0" departLane="random" departSpeed="10" />
    <vehicle id="E_W_61" type="standard_car" route="E_W" depart="34.0" departLane="random" departSpeed="10" />
    <vehicle id="E_N_62" type="BUS" route="E_N" depart="34.0" departLane="random" departSpeed="10" />
    <vehicle id="S_N_63" type="standard_car" route="S_N" depart="34.0" departLane="random" departSpeed="10" />
    <vehicle id="E_W_64" type="standard_car" route="E_W" depart="35.0" departLane="random" departSpeed="10" />
    <vehicle id="N_E65" type="motorcycle" route="N_E" depart="35.0" departLane="random" departSpeed="10" />
    <vehicle id="S_N_66" type="BUS" route="S_N" depart="35.0" departLane="random" departSpeed="10" />
    <vehicle id="E_W_67" type="standard_car" route="E_W" depart="36.0" departLane="random" departSpeed="10" />
    <vehicle id="S_N_68" type="truck" route="S_N" depart="36.0" departLane="random" departSpeed="10" />
    <vehicle id="S_N_69" type="standard_car" route="S_N" depart="36.0" departLane="random" departSpeed="10" />
    <vehicle id="S_N70" type="evehicle" route="S_N" depart="36.0" departLane="random" departSpeed="10" />
    <vehicle id="E_W71" type="evehicle" route="E_W" depart="37.0" departLane="random" departSpeed="10" />
    <vehicle id="N_W72" type="evehicle" route="N_W" depart="37.0" departLane="random" departSpeed="10" />
    <vehicle id="E_W_73" type="truck" route="E_W" depart="37.0" departLane="random" departSpeed="10" />
    <vehicle id="N_S_74" type="BUS" route="N_S" depart="37.0" departLane="random" departSpeed="10" />
    <vehicle id="N_S75" type="evehicle" route="N_S" depart="38.0" departLane="random" departSpeed="10" />
    <vehicle id="W_E_76" type="standard_car" route="W_E" depart="38.0" departLane="random" departSpeed="10" />
    <vehicle id="W_S77" type="evehicle" route="W_S" depart="38.0" departLane="random" departSpeed="10" />
    <vehicle id="S_N_78" type="truck" route="S_N" depart="38.0" departLane="random" departSpeed="10" />
    <vehicle id="W_E_79" type="standard_car" route="W_E" depart="38.0" departLane="random" departSpeed="10" />
    <vehicle id="E_W_80" type="truck" route="E_W" depart="39.0" departLane="random" departSpeed="10" />
    <vehicle id="E_W_81" type="BUS" route="E_W" depart="39.0" departLane="random" departSpeed="10" />
    <vehicle id="E_S_82" type="standard_car" route="E_S" depart="39.0" departLane="random" departSpeed="10" />
    <vehicle id="E_W_83" type="standard_car" route="E_W" depart="40.0" departLane="random" departSpeed="10" />
    <vehicle id="N_E_84" type="truck" route="N_E" depart="40.0" departLane="random" departSpeed="10" />
    <vehicle id="W_E85" type="evehicle" route="W_E" depart="40.0" departLane="random" departSpeed="10" />
    <vehicle id="E_N_86" type="standard_car" route="E_N" depart="41.0" departLane="random" departSpeed="10" />
    <vehicle id="N_S_87" type="BUS" route="N_S" depart="41.0" departLane="random" departSpeed="10" />
    <vehicle id="S_N_88" type="truck" route="S_N" depart="41.0" departLane="random" departSpeed="10" />
    <vehicle id="W_E89" type="evehicle" route="W_E" depart="41.0" departLane="random" departSpeed="10" />
    <vehicle id="W_N90" type="evehicle" route="W_N" depart="41.0" departLane="random" departSpeed="10" />
    <vehicle id="S_N_91" type="BUS" route="S_N" depart="41.0" departLane="random" departSpeed="10" />
    <vehicle id="N_S92" type="motorcycle" route="N_S" depart="41.0" departLane="random" departSpeed="10" />
    <vehicle id="S_N_93" type="standard_car" route="S_N" depart="42.0" departLane="random" departSpeed="10" />
    <vehicle id="W_S94" type="evehicle" route="W_S" depart="42.0" departLane="random" departSpeed="10" />
    <vehicle id="S_W95" type="evehicle" route="S_W" depart="42.0" departLane="random" departSpeed="10" />
    <vehicle id="E_W_96" type="truck" route="E_W" depart="42.0" departLane="random" departSpeed="10" />
    <vehicle id="E_S97" type="evehicle" route="E_S" depart="42.0" departLane="random" departSpeed="10" />
    <vehicle id="N_S98" type="motorcycle" route="N_S" depart="42.0" departLane="random" departSpeed="10" />
    <vehicle id="W_E_99" type="standard_car" route="W_E" depart="42.0" departLane="random" departSpeed="10" />
    <vehicle id="E_W100" type="evehicle" route="E_W" depart="42.0" departLane="random" departSpeed="10" />
    <vehicle id="E_W101" type="evehicle" route="E_W" depart="43.0" departLane="random" departSpeed="10" />
    <vehicle id="E_W102" type="motorcycle" route="E_W" depart="43.0" departLane="random" departSpeed="10" />
    <vehicle id="S_N103" type="evehicle" route="S_N" depart="43.0" departLane="random" departSpeed="10" />
    <vehicle id="S_N104" type="motorcycle" route="S_N" depart="44.0" departLane="random" departSpeed="10" />
    <vehicle id="W_E105" type="evehicle" route="W_E" depart="44.0" departLane="random" departSpeed="10" />
    <vehicle id="E_W_106" type="standard_car" route="E_W" depart="44.0" departLane="random" departSpeed="10" />
    <vehicle id="N_S107" type="evehicle" route="N_S" depart="45.0" departLane="random" departSpeed="10" />
    <vehicle id="N_S108" type="evehicle" route="N_S" depart="45.0" departLane="random" departSpeed="10" />
    <vehicle id="W_E_109" type="standard_car" route="W_E" depart="46.0" departLane="random" departSpeed="10" />
    <vehicle id="E_W110" type="evehicle" route="E_W" depart="46.0" departLane="random" departSpeed="10" />
    <vehicle id="W_S111" type="evehicle" route="W_S" depart="46.0" departLane="random" departSpeed="10" />
    <vehicle id="W_E112" type="evehicle" route="W_E" depart="46.0" departLane="random" departSpeed="10" />
    <vehicle id="E_S_113" type="truck" route="E_S" depart="46.0" departLane="random" departSpeed="10" />
    <vehicle id="E_W_114" type="standard_car" route="E_W" depart="47.0" departLane="random" departSpeed="10" />
    <vehicle id="E_W_115" type="truck" route="E_W" depart="47.0" departLane="random" departSpeed="10" />
    <vehicle id="S_W_116" type="standard_car" route="S_W" depart="47.0" departLane="random" departSpeed="10" />
    <vehicle id="W_E117" type="evehicle" route="W_E" depart="47.0" departLane="random" departSpeed="10" />
    <vehicle id="W_N_118" type="truck" route="W_N" depart="48.0" departLane="random" departSpeed="10" />
    <vehicle id="W_N_119" type="standard_car" route="W_N" depart="48.0" departLane="random" departSpeed="10" />
    <vehicle id="S_N_120" type="truck" route="S_N" depart="48.0" departLane="random" departSpeed="10" />
    <vehicle id="N_W_121" type="standard_car" route="N_W" depart="48.0" departLane="random" departSpeed="10" />
    <vehicle id="W_E_122" type="BUS" route="W_E" depart="48.0" departLane="random" departSpeed="10" />
    <vehicle id="S_W_123" type="standard_car" route="S_W" depart="49.0" departLane="random" departSpeed="10" />
    <vehicle id="E_W124" type="evehicle" route="E_W" depart="49.0" departLane="random" departSpeed="10" />
    <vehicle id="E_W_125" type="truck" route="E_W" depart="49.0" departLane="random" departSpeed="10" />
    <vehicle id="N_S126" type="evehicle" route="N_S" depart="50.0" departLane="random" departSpeed="10" />
    <vehicle id="S_N127" type="evehicle" route="S_N" depart="50.0" departLane="random" departSpeed="10" />
    <vehicle id="E_N_128" type="BUS" route="E_N" depart="50.0" departLane="random" departSpeed="10" />
    <vehicle id="E_N_129" type="BUS" route="E_N" depart="50.0" departLane="random" departSpeed="10" />
    <vehicle id="W_E130" type="evehicle" route="W_E" depart="50.0" departLane="random" departSpeed="10" />
    <vehicle id="E_N131" type="motorcycle" route="E_N" depart="50.0" departLane="random" departSpeed="10" />
    <vehicle id="S_N132" type="evehicle" route="S_N" depart="50.0" departLane="random" departSpeed="10" />
    <vehicle id="E_W_133" type="BUS" route="E_W" depart="51.0" departLane="random" departSpeed="10" />
    <vehicle id="W_E134" type="motorcycle" route="W_E" depart="51.0" departLane="random" departSpeed="10" />
    <vehicle id="S_N_135" type="standard_car" route="S_N" depart="51.0" departLane="random" departSpeed="10" />
    <vehicle id="N_W136" type="evehicle" route="N_W" depart="51.0" departLane="random" departSpeed="10" />
    <vehicle id="W_E137" type="motorcycle" route="W_E" depart="51.0" departLane="random" departSpeed="10" />
    <vehicle id="W_E_138" type="truck" route="W_E" depart="51.0" departLane="random" departSpeed="10" />
    <vehicle id="N_S_139" type="standard_car" route="N_S" depart="52.0" departLane="random" departSpeed="10" />
    <vehicle id="E_W140" type="evehicle" route="E_W" depart="52.0" departLane="random" departSpeed="10" />
    <vehicle id="W_E_141" type="standard_car" route="W_E" depart="52.0" departLane="random" departSpeed="10" />
    <vehicle id="E_W_142" type="standard_car" route="E_W" depart="52.0" departLane="random" departSpeed="10" />
    <vehicle id="N_E_143" type="BUS" route="N_E" depart="52.0" departLane="random" departSpeed="10" />
    <vehicle id="W_E_144" type="BUS" route="W_E" depart="52.0" departLane="random" departSpeed="10" />
    <vehicle id="W_E145" type="evehicle" route="W_E" depart="53.0" departLane="random" departSpeed="10" />
    <vehicle id="S_N_146" type="standard_car" route="S_N" depart="53.0" departLane="random" departSpeed="10" />
    <vehicle id="S_N_147" type="standard_car" route="S_N" depart="53.0" departLane="random" departSpeed="10" />
    <vehicle id="S_N_148" type="truck" route="S_N" depart="53.0" departLane="random" departSpeed="10" />
    <vehicle id="W_E_149" type="truck" route="W_E" depart="54.0" departLane="random" departSpeed="10" />
    <vehicle id="S_N_150" type="BUS" route="S_N" depart="54.0" departLane="random" departSpeed="10" />
    <vehicle id="N_E_151" type="standard_car" route="N_E" depart="54.0" departLane="random" departSpeed="10" />
    <vehicle id="E_S_152" type="truck" route="E_S" depart="54.0" departLane="random" departSpeed="10" />
    <vehicle id="S_N_153" type="BUS" route="S_N" depart="54.0" departLane="random" departSpeed="10" />
    <vehicle id="W_E_154" type="truck" route="W_E" depart="54.0" departLane="random" departSpeed="10" />
    <vehicle id="S_W155" type="evehicle" route="S_W" depart="55.0" departLane="random" departSpeed="10" />
    <vehicle id="N_S_156" type="truck" route="N_S" depart="55.0" departLane="random" departSpeed="10" />
    <vehicle id="S_W_157" type="truck" route="S_W" depart="55.0" departLane="random" departSpeed="10" />
    <vehicle id="E_N_158" type="standard_car" route="E_N" depart="55.0" departLane="random" departSpeed="10" />
    <vehicle id="W_E159" type="evehicle" route="W_E" depart="55.0" departLane="random" departSpeed="10" />
    <vehicle id="W_E_160" type="standard_car" route="W_E" depart="56.0" departLane="random" departSpeed="10" />
    <vehicle id="S_E_161" type="BUS" route="S_E" depart="56.0" departLane="random" departSpeed="10" />
    <vehicle id="E_N_162" type="standard_car" route="E_N" depart="57.0" departLane="random" departSpeed="10" />
    <vehicle id="S_N_163" type="BUS" route="S_N" depart="57.0" departLane="random" departSpeed="10" />
    <vehicle id="E_W164" type="evehicle" route="E_W" depart="58.0" departLane="random" departSpeed="10" />
    <vehicle id="W_E165" type="evehicle" route="W_E" depart="58.0" departLane="random" departSpeed="10" />
    <vehicle id="W_E_166" type="standard_car" route="W_E" depart="58.0" departLane="random" departSpeed="10" />
    <vehicle id="E_W_167" type="standard_car" route="E_W" depart="58.0" departLane="random" departSpeed="10" />
    <vehicle id="N_S168" type="evehicle" route="N_S" depart="58.0" departLane="random" departSpeed="10" />
    <vehicle id="N_S_169" type="truck" route="N_S" depart="58.0" departLane="random" departSpeed="10" />
    <vehicle id="S_N170" type="evehicle" route="S_N" depart="59.0" departLane="random" departSpeed="10" />
    <vehicle id="N_S171" type="evehicle" route="N_S" depart="59.0" departLane="random" departSpeed="10" />
    <vehicle id="S_W_172" type="truck" route="S_W" depart="59.0" departLane="random" departSpeed="10" />
    <vehicle id="E_W_173" type="standard_car" route="E_W" depart="59.0" departLane="random" departSpeed="10" />
    <vehicle id="N_S_174" type="standard_car" route="N_S" depart="59.0" departLane="random" departSpeed="10" />
    <vehicle id="S_N175" type="evehicle" route="S_N" depart="59.0" departLane="random" departSpeed="10" />
    <vehicle id="N_S176" type="evehicle" route="N_S" depart="59.0" departLane="random" departSpeed="10" />
    <vehicle id="N_S_177" type="standard_car" route="N_S" depart="59.0" departLane="random" departSpeed="10" />
    <vehicle id="E_W_178" type="truck" route="E_W" depart="59.0" departLane="random" departSpeed="10" />
    <vehicle id="E_W179" type="evehicle" route="E_W" depart="59.0" departLane="random" departSpeed="10" />
    <vehicle id="E_N_180" type="standard_car" route="E_N" depart="59.0" departLane="random" departSpeed="10" />
    <vehicle id="E_W181" type="motorcycle" route="E_W" depart="60.0" departLane="random" departSpeed="10" />
    <vehicle id="W_E_182" type="standard_car" route="W_E" depart="60.0" departLane="random" departSpeed="10" />
    <vehicle id="S_N183" type="evehicle" route="S_N" depart="60.0" departLane="random" departSpeed="10" />
    <vehicle id="E_W_184" type="standard_car" route="E_W" depart="60.0" departLane="random" departSpeed="10" />
    <vehicle id="W_E185" type="motorcycle" route="W_E" depart="60.0" departLane="random" departSpeed="10" />
    <vehicle id="E_W_186" type="standard_car" route="E_W" depart="61.0" departLane="random" departSpeed="10" />
    <vehicle id="W_E_187" type="standard_car" route="W_E" depart="61.0" departLane="random" departSpeed="10" />
    <vehicle id="W_S188" type="evehicle" route="W_S" depart="61.0" departLane="random" departSpeed="10" />
    <vehicle id="W_E_189" type="standard_car" route="W_E" depart="61.0" departLane="random" departSpeed="10" />
    <vehicle id="E_W190" type="evehicle" route="E_W" depart="61.0" departLane="random" departSpeed="10" />
    <vehicle id="S_E_191" type="BUS" route="S_E" depart="62.0" departLane="random" departSpeed="10" />
    <vehicle id="E_W192" type="evehicle" route="E_W" depart="62.0" departLane="random" departSpeed="10" />
    <vehicle id="N_W193" type="evehicle" route="N_W" depart="62.0" departLane="random" departSpeed="10" />
    <vehicle id="N_S_194" type="standard_car" route="N_S" depart="62.0" departLane="random" departSpeed="10" />
    <vehicle id="E_W_195" type="standard_car" route="E_W" depart="62.0" departLane="random" departSpeed="10" />
    <vehicle id="E_W_196" type="standard_car" route="E_W" depart="63.0" departLane="random" departSpeed="10" />
    <vehicle id="S_N_197" type="standard_car" route="S_N" depart="63.0" departLane="random" departSpeed="10" />
    <vehicle id="E_W_198" type="BUS" route="E_W" depart="63.0" departLane="random" departSpeed="10" />
    <vehicle id="E_N_199" type="standard_car" route="E_N" depart="63.0" departLane="random" departSpeed="10" />
    <vehicle id="W_S_200" type="standard_car" route="W_S" depart="64.0" departLane="random" departSpeed="10" />
    <vehicle id="N_S_201" type="standard_car" route="N_S" depart="64.0" departLane="random" departSpeed="10" />
    <vehicle id="E_N_202" type="standard_car" route="E_N" depart="64.0" departLane="random" departSpeed="10" />
    <vehicle id="E_W203" type="evehicle" route="E_W" depart="64.0" departLane="random" departSpeed="10" />
    <vehicle id="E_S204" type="motorcycle" route="E_S" depart="66.0" departLane="random" departSpeed="10" />
    <vehicle id="S_N_205" type="standard_car" route="S_N" depart="66.0" departLane="random" departSpeed="10" />
    <vehicle id="S_W_206" type="standard_car" route="S_W" depart="66.0" departLane="random" departSpeed="10" />
    <vehicle id="W_E_207" type="BUS" route="W_E" depart="66.0" departLane="random" departSpeed="10" />
    <vehicle id="E_W208" type="evehicle" route="E_W" depart="67.0" departLane="random" departSpeed="10" />
    <vehicle id="S_N_209" type="standard_car" route="S_N" depart="67.0" departLane="random" departSpeed="10" />
    <vehicle id="N_E210" type="evehicle" route="N_E" depart="67.0" departLane="random" departSpeed="10" />
    <vehicle id="N_S_211" type="truck" route="N_S" depart="69.0" departLane="random" departSpeed="10" />
    <vehicle id="W_E212" type="evehicle" route="W_E" depart="69.0" departLane="random" departSpeed="10" />
    <vehicle id="N_S_213" type="standard_car" route="N_S" depart="69.0" departLane="random" departSpeed="10" />
    <vehicle id="W_E_214" type="standard_car" route="W_E" depart="69.0" departLane="random" departSpeed="10" />
    <vehicle id="N_W_215" type="standard_car" route="N_W" depart="69.0" departLane="random" departSpeed="10" />
    <vehicle id="W_E216" type="evehicle" route="W_E" depart="69.0" departLane="random" departSpeed="10" />
    <vehicle id="N_S_217" type="standard_car" route="N_S" depart="69.0" departLane="random" departSpeed="10" />
    <vehicle id="W_E218" type="evehicle" route="W_E" depart="70.0" departLane="random" departSpeed="10" />
    <vehicle id="S_E_219" type="standard_car" route="S_E" depart="70.0" departLane="random" departSpeed="10" />
    <vehicle id="N_S220" type="motorcycle" route="N_S" depart="70.0" departLane="random" departSpeed="10" />
    <vehicle id="N_S221" type="evehicle" route="N_S" depart="70.0" departLane="random" departSpeed="10" />
    <vehicle id="S_W222" type="evehicle" route="S_W" depart="70.0" departLane="random" departSpeed="10" />
    <vehicle id="W_E_223" type="standard_car" route="W_E" depart="71.0" departLane="random" departSpeed="10" />
    <vehicle id="S_N_224" type="BUS" route="S_N" depart="71.0" departLane="random" departSpeed="10" />
    <vehicle id="W_E_225" type="BUS" route="W_E" depart="71.0" departLane="random" departSpeed="10" />
    <vehicle id="N_S_226" type="standard_car" route="N_S" depart="71.0" departLane="random" departSpeed="10" />
    <vehicle id="N_S_227" type="BUS" route="N_S" depart="71.0" departLane="random" departSpeed="10" />
    <vehicle id="W_S_228" type="standard_car" route="W_S" depart="71.0" departLane="random" departSpeed="10" />
    <vehicle id="W_S229" type="evehicle" route="W_S" depart="71.0" departLane="random" departSpeed="10" />
    <vehicle id="N_S230" type="evehicle" route="N_S" depart="72.0" departLane="random" departSpeed="10" />
    <vehicle id="E_W_231" type="standard_car" route="E_W" depart="72.0" departLane="random" departSpeed="10" />
    <vehicle id="S_N232" type="motorcycle" route="S_N" depart="72.0" departLane="random" departSpeed="10" />
    <vehicle id="N_W233" type="evehicle" route="N_W" depart="73.0" departLane="random" departSpeed="10" />
    <vehicle id="S_W234" type="evehicle" route="S_W" depart="73.0" departLane="random" departSpeed="10" />
    <vehicle id="S_N_235" type="standard_car" route="S_N" depart="73.0" departLane="random" departSpeed="10" />
    <vehicle id="N_E236" type="evehicle" route="N_E" depart="73.0" departLane="random" departSpeed="10" />
    <vehicle id="N_S_237" type="standard_car" route="N_S" depart="73.0" departLane="random" departSpeed="10" />
    <vehicle id="S_N_238" type="BUS" route="S_N" depart="73.0" departLane="random" departSpeed="10" />
    <vehicle id="N_S239" type="evehicle" route="N_S" depart="73.0" departLane="random" departSpeed="10" />
    <vehicle id="E_W_240" type="truck" route="E_W" depart="73.0" departLane="random" departSpeed="10" />
    <vehicle id="S_E_241" type="BUS" route="S_E" depart="73.0" departLane="random" departSpeed="10" />
    <vehicle id="N_S_242" type="standard_car" route="N_S" depart="73.0" departLane="random" departSpeed="10" />
    <vehicle id="N_S_243" type="standard_car" route="N_S" depart="74.0" departLane="random" departSpeed="10" />
    <vehicle id="E_W_244" type="BUS" route="E_W" depart="74.0" departLane="random" departSpeed="10" />
    <vehicle id="N_S245" type="evehicle" route="N_S" depart="74.0" departLane="random" departSpeed="10" />
    <vehicle id="S_W_246" type="BUS" route="S_W" depart="74.0" departLane="random" departSpeed="10" />
    <vehicle id="N_S247" type="evehicle" route="N_S" depart="74.0" departLane="random" departSpeed="10" />
    <vehicle id="S_N_248" type="truck" route="S_N" depart="74.0" departLane="random" departSpeed="10" />
    <vehicle id="S_N_249" type="BUS" route="S_N" depart="74.0" departLane="random" departSpeed="10" />
    <vehicle id="E_W_250" type="standard_car" route="E_W" depart="74.0" departLane="random" departSpeed="10" />
    <vehicle id="N_S251" type="evehicle" route="N_S" depart="74.0" departLane="random" departSpeed="10" />
    <vehicle id="E_N252" type="motorcycle" route="E_N" depart="75.0" departLane="random" departSpeed="10" />
    <vehicle id="E_W_253" type="standard_car" route="E_W" depart="75.0" departLane="random" departSpeed="10" />
    <vehicle id="W_E_254" type="standard_car" route="W_E" depart="75.0" departLane="random" departSpeed="10" />
    <vehicle id="W_S_255" type="truck" route="W_S" depart="75.0" departLane="random" departSpeed="10" />
    <vehicle id="N_S_256" type="truck" route="N_S" depart="75.0" departLane="random" departSpeed="10" />
    <vehicle id="N_S_257" type="BUS" route="N_S" depart="75.0" departLane="random" departSpeed="10" />
    <vehicle id="W_N_258" type="standard_car" route="W_N" depart="76.0" departLane="random" departSpeed="10" />
    <vehicle id="E_W_259" type="standard_car" route="E_W" depart="76.0" departLane="random" departSpeed="10" />
    <vehicle id="E_W260" type="evehicle" route="E_W" depart="76.0" departLane="random" departSpeed="10" />
    <vehicle id="E_S261" type="evehicle" route="E_S" depart="77.0" departLane="random" departSpeed="10" />
    <vehicle id="E_W_262" type="truck" route="E_W" depart="77.0" departLane="random" departSpeed="10" />
    <vehicle id="N_S_263" type="truck" route="N_S" depart="77.0" departLane="random" departSpeed="10" />
    <vehicle id="E_W_264" type="BUS" route="E_W" depart="77.0" departLane="random" departSpeed="10" />
    <vehicle id="S_N265" type="motorcycle" route="S_N" depart="77.0" departLane="random" departSpeed="10" />
    <vehicle id="W_S266" type="evehicle" route="W_S" depart="78.0" departLane="random" departSpeed="10" />